java/SFINA/experiments/experiment-Case30LinkRemovalRandom/output/time_10/iteration_1/flow/links.txt
id,current,real_power_from,reactive_power_from,real_power_to,reactive_power_to,resistance,reactance,susceptance,rateA,rateB,rateC,ratio,angle,angmin,angmax
1,136.35066878727682,29.876497607009433,-11.130382741996847,-29.67942773080562,8.721592370608047,0.02,0.06,0.03,130.0,130.0,130.0,0.0,0.0,-360.0,360.0
2,133.03611497236423,30.38222352841754,-6.677715154730901,-29.904565550463058,6.497934857308605,0.05,0.19,0.02,130.0,130.0,130.0,0.0,0.0,-360.0,360.0
3,194.35113238383298,-42.090485861660724,17.13461199746008,43.35076975308217,-15.55948507842044,0.06,0.17,0.02,65.0,65.0,65.0,0.0,0.0,-360.0,360.0
4,122.461939678128,27.504565271223715,-7.697933385676282,-27.422569574656958,8.025916171943265,0.01,0.04,0.0,130.0,130.0,130.0,0.0,0.0,-360.0,360.0
5,128.77675743925064,28.495984819751744,9.730321472351863,-28.03240434487798,-9.808522736184024,0.05,0.2,0.02,130.0,130.0,130.0,0.0,0.0,-360.0,360.0
6,238.9008121140914,52.86450114777169,18.051135438536164,-50.96994040191158,-14.24679907647493,0.06,0.18,0.02,65.0,65.0,65.0,0.0,0.0,-360.0,360.0
7,190.79114193261583,41.50488881038228,13.323150520300567,-41.30586492220735,-12.527054967600826,0.01,0.04,0.0,90.0,90.0,90.0,0.0,0.0,-360.0,360.0
8,131.78846963076046,28.032404344877847,9.985702137215812,-27.55249174102257,-9.74068754495578,0.05,0.12,0.01,70.0,70.0,70.0,0.0,0.0,-360.0,360.0
9,21.681765381752335,-4.744624960996715,0.300103522024495,4.7524917410224985,-1.1593124550444547,0.03,0.08,0.01,130.0,130.0,130.0,0.0,0.0,-360.0,360.0
10,157.0573009399722,29.42729090126901,17.887990058964,-29.292424101849797,-17.348522861287137,0.01,0.04,0.0,32.0,32.0,32.0,0.0,0.0,-360.0,360.0
11,0.0,0.0,-0.0,0.0,-0.0,0.0,0.21,0.0,65.0,65.0,65.0,0.0,0.0,-360.0,360.0
12,121.22678932714301,26.287274461639132,-3.9412945045142793,-26.287274461639132,8.44089571458904,0.0,0.56,0.0,32.0,32.0,32.0,0.0,0.0,-360.0,360.0
13,0.0,0.0,-0.0,0.0,-0.0,0.0,0.21,0.0,65.0,65.0,65.0,0.0,0.0,-360.0,360.0
14,43.263170621574034,9.096103975155703,-3.951694274597732,-9.096103975155705,4.06426310805696,0.0,0.11,0.0,65.0,65.0,65.0,0.0,0.0,-360.0,360.0
15,103.99778439564292,-23.528201043958056,5.933570446254509,23.528201043958056,-4.396087477078059,0.0,0.26,0.0,65.0,65.0,65.0,0.0,0.0,-360.0,360.0
16,166.61411790799687,-36.999999902878855,-10.073141932545758,36.999999902878855,12.198051362337518,0.0,0.14,0.0,65.0,65.0,65.0,0.0,0.0,-360.0,360.0
17,28.165693273278645,6.252043810013919,1.7127700499819307,-6.199994985142917,-1.5999975960947612,0.12,0.26,0.0,32.0,32.0,32.0,0.0,0.0,-360.0,360.0
18,35.80207079943221,-7.494841204741151,3.424033081917795,7.543898446439733,-3.33292677590614,0.07,0.13,0.0,32.0,32.0,32.0,0.0,0.0,-360.0,360.0
19,17.221640969594613,3.5145941809785493,1.8324315612560196,-3.499999978641535,-1.8000000005070975,0.09,0.2,0.0,32.0,32.0,32.0,0.0,0.0,-360.0,360.0
20,17.693654183221856,-3.9985245324832066,0.5741130785837397,4.036181603924391,-0.5398793772735723,0.22,0.2,0.0,16.0,16.0,16.0,0.0,0.0,-360.0,360.0
21,26.480687101840218,5.684094077085482,-2.0777288447174564,-5.653422417317758,2.1505740366658026,0.08,0.19,0.0,16.0,16.0,16.0,0.0,0.0,-360.0,360.0
22,71.67747791133777,16.226422208414125,-2.361675007609776,-15.917430441360644,2.979658541716737,0.11,0.22,0.0,16.0,16.0,16.0,0.0,0.0,-360.0,360.0
23,15.166458935991974,-3.200000000000054,-0.9000000000000985,3.207545854541791,0.9163493515071955,0.06,0.13,0.0,16.0,16.0,16.0,0.0,0.0,-360.0,360.0
24,61.01642615370887,-12.707545854541756,-4.316349351507054,12.768612431925774,4.458838032069758,0.03,0.07,0.0,32.0,32.0,32.0,0.0,0.0,-360.0,360.0
25,71.42848931056936,15.219670528135353,5.744640256558947,-14.96861243192586,-5.15883803207013,0.09,0.21,0.0,32.0,32.0,32.0,0.0,0.0,-360.0,360.0
26,47.382684378534854,9.03682556077125,5.898201495390043,-9.000000000000083,-5.800000000000263,0.03,0.08,0.0,32.0,32.0,32.0,0.0,0.0,-360.0,360.0
27,98.36764441810513,-3.7692216272674046,-22.083737466537265,3.9279353906322902,22.454069581055336,0.03,0.07,0.0,32.0,32.0,32.0,0.0,0.0,-360.0,360.0
28,44.15931415197394,-2.9712226199794114,-9.706250258279304,3.0458557182512624,9.866178326004698,0.07,0.15,0.0,32.0,32.0,32.0,0.0,0.0,-360.0,360.0
29,172.16691498384492,-21.42793539063169,-33.654069581055474,21.5899999999995,33.9781987997911,0.01,0.02,0.0,32.0,32.0,32.0,0.0,0.0,-360.0,360.0
30,68.44044599329588,-15.743897519728916,0.8329271854020891,16.00000039459526,-0.32072143566939704,0.1,0.2,0.0,16.0,16.0,16.0,0.0,0.0,-360.0,360.0
31,39.73284061660109,-3.436220985216324,8.631786175448594,3.5397994019018126,-8.476418550420364,0.12,0.18,0.0,16.0,16.0,16.0,0.0,0.0,-360.0,360.0
32,34.949397218449626,5.415375217999388,6.1202170513523,-5.328556868839788,-5.9399020184823605,0.13,0.27,0.0,16.0,16.0,16.0,0.0,0.0,-360.0,360.0
33,50.78257875259886,-8.699999999999974,-6.6659220585579115,8.96789949443461,7.1312211804707,0.19,0.33,0.0,16.0,16.0,16.0,0.0,0.0,-360.0,360.0
34,18.925531992848242,3.548958149360675,2.3744163870282775,-3.4999999999999667,-2.299999999999999,0.25,0.38,0.0,16.0,16.0,16.0,0.0,0.0,-360.0,360.0
35,69.66159235519164,-12.516857643795426,-9.505637567499114,12.808713405849629,10.062816749602593,0.11,0.21,0.0,16.0,16.0,16.0,0.0,0.0,-360.0,360.0
36,50.43277202177027,-0.805009640365989,-11.208772180766887,0.8050096403659893,11.765027865560917,0.0,0.4,0.0,65.0,65.0,65.0,0.0,0.0,-360.0,360.0
37,27.368263226564903,6.173882003297194,1.6840278133304278,-6.083785912230437,-1.5120261849302563,0.22,0.42,0.0,16.0,16.0,16.0,0.0,0.0,-360.0,360.0
38,31.290684235278526,7.122394950487263,1.6745629326654552,-6.951090403779474,-1.3533669075883548,0.32,0.6,0.0,16.0,16.0,16.0,0.0,0.0,-360.0,360.0
39,16.302915792211824,3.6837859122304235,0.6120261849301747,-3.64890959622053,-0.5466330924116244,0.24,0.45,0.0,16.0,16.0,16.0,0.0,0.0,-360.0,360.0
40,58.456467388801926,-0.7075758981500749,-12.651477138712577,0.8050096403660008,11.208772180766973,0.06,0.2,0.02,32.0,32.0,32.0,0.0,0.0,-360.0,360.0
41,12.363970708097785,-0.6501228351114741,-2.7368379875190976,0.6512944138720519,1.7921179504050309,0.02,0.06,0.01,32.0,32.0,32.0,0.0,0.0,-360.0,360.0
